[root]
type=Root
children=system
eventq_index=0
full_system=false
sim_quantum=0
time_sync_enable=false
time_sync_period=100000000000
time_sync_spin_threshold=100000000

[system]
type=System
children=clk_domain cpu0 cpu1 cpu2 cpu3 cpu_clk_domain cpu_voltage_domain dvfs_handler mem_ctrls ruby sys_port_proxy voltage_domain
boot_osflags=a
cache_line_size=64
clk_domain=system.clk_domain
eventq_index=0
init_param=0
kernel=
kernel_addr_check=true
load_addr_mask=1099511627775
load_offset=0
mem_mode=timing
mem_ranges=0:4294967295
memories=system.mem_ctrls
mmap_using_noreserve=false
num_work_ids=16
readfile=
symbolfile=
work_begin_ckpt_count=0
work_begin_cpu_id_exit=-1
work_begin_exit_count=0
work_cpus_ckpt_count=0
work_end_ckpt_count=0
work_end_exit_count=0
work_item_id=-1
system_port=system.sys_port_proxy.slave[0]

[system.clk_domain]
type=SrcClockDomain
clock=1000
domain_id=-1
eventq_index=0
init_perf_level=0
voltage_domain=system.voltage_domain

[system.cpu0]
type=TimingSimpleCPU
children=apic_clk_domain dtb interrupts isa itb tracer workload
branchPred=Null
checker=Null
clk_domain=system.cpu_clk_domain
cpu_id=0
do_checkpoint_insts=true
do_quiesce=true
do_statistics_insts=true
dtb=system.cpu0.dtb
eventq_index=0
function_trace=false
function_trace_start=0
interrupts=system.cpu0.interrupts
isa=system.cpu0.isa
itb=system.cpu0.itb
max_insts_all_threads=0
max_insts_any_thread=0
max_loads_all_threads=0
max_loads_any_thread=0
numThreads=1
profile=0
progress_interval=0
simpoint_start_insts=
socket_id=0
switched_out=false
system=system
tracer=system.cpu0.tracer
workload=system.cpu0.workload
dcache_port=system.ruby.l1_cntrl0.sequencer.slave[1]
icache_port=system.ruby.l1_cntrl0.sequencer.slave[0]

[system.cpu0.apic_clk_domain]
type=DerivedClockDomain
clk_divider=16
clk_domain=system.cpu_clk_domain
eventq_index=0

[system.cpu0.dtb]
type=X86TLB
children=walker
eventq_index=0
size=64
walker=system.cpu0.dtb.walker

[system.cpu0.dtb.walker]
type=X86PagetableWalker
clk_domain=system.cpu_clk_domain
eventq_index=0
num_squash_per_cycle=4
system=system
port=system.ruby.l1_cntrl0.sequencer.slave[4]

[system.cpu0.interrupts]
type=X86LocalApic
clk_domain=system.cpu0.apic_clk_domain
eventq_index=0
int_latency=1000
pio_addr=2305843009213693952
pio_latency=100000
system=system
int_master=system.ruby.l1_cntrl0.sequencer.slave[2]
int_slave=system.ruby.l1_cntrl0.sequencer.master[1]
pio=system.ruby.l1_cntrl0.sequencer.master[0]

[system.cpu0.isa]
type=X86ISA
eventq_index=0

[system.cpu0.itb]
type=X86TLB
children=walker
eventq_index=0
size=64
walker=system.cpu0.itb.walker

[system.cpu0.itb.walker]
type=X86PagetableWalker
clk_domain=system.cpu_clk_domain
eventq_index=0
num_squash_per_cycle=4
system=system
port=system.ruby.l1_cntrl0.sequencer.slave[3]

[system.cpu0.tracer]
type=ExeTracer
eventq_index=0

[system.cpu0.workload]
type=LiveProcess
cmd=splash2/codes/apps/fmm/FMM -p 4
cwd=/home/shreyaseth1996/PMSI_CS533/gem5-stable
drivers=
egid=100
env=
errout=cerr
euid=100
eventq_index=0
executable=splash2/codes/apps/fmm/FMM
gid=100
input=cin
kvmInSE=false
max_stack_size=67108864
output=cout
pid=100
ppid=99
simpoint=0
system=system
uid=100
useArchPT=false

[system.cpu1]
type=TimingSimpleCPU
children=apic_clk_domain dtb interrupts isa itb tracer
branchPred=Null
checker=Null
clk_domain=system.cpu_clk_domain
cpu_id=1
do_checkpoint_insts=true
do_quiesce=true
do_statistics_insts=true
dtb=system.cpu1.dtb
eventq_index=0
function_trace=false
function_trace_start=0
interrupts=system.cpu1.interrupts
isa=system.cpu1.isa
itb=system.cpu1.itb
max_insts_all_threads=0
max_insts_any_thread=0
max_loads_all_threads=0
max_loads_any_thread=0
numThreads=1
profile=0
progress_interval=0
simpoint_start_insts=
socket_id=0
switched_out=false
system=system
tracer=system.cpu1.tracer
workload=system.cpu0.workload
dcache_port=system.ruby.l1_cntrl1.sequencer.slave[1]
icache_port=system.ruby.l1_cntrl1.sequencer.slave[0]

[system.cpu1.apic_clk_domain]
type=DerivedClockDomain
clk_divider=16
clk_domain=system.cpu_clk_domain
eventq_index=0

[system.cpu1.dtb]
type=X86TLB
children=walker
eventq_index=0
size=64
walker=system.cpu1.dtb.walker

[system.cpu1.dtb.walker]
type=X86PagetableWalker
clk_domain=system.cpu_clk_domain
eventq_index=0
num_squash_per_cycle=4
system=system
port=system.ruby.l1_cntrl1.sequencer.slave[4]

[system.cpu1.interrupts]
type=X86LocalApic
clk_domain=system.cpu1.apic_clk_domain
eventq_index=0
int_latency=1000
pio_addr=2305843009213693952
pio_latency=100000
system=system
int_master=system.ruby.l1_cntrl1.sequencer.slave[2]
int_slave=system.ruby.l1_cntrl1.sequencer.master[1]
pio=system.ruby.l1_cntrl1.sequencer.master[0]

[system.cpu1.isa]
type=X86ISA
eventq_index=0

[system.cpu1.itb]
type=X86TLB
children=walker
eventq_index=0
size=64
walker=system.cpu1.itb.walker

[system.cpu1.itb.walker]
type=X86PagetableWalker
clk_domain=system.cpu_clk_domain
eventq_index=0
num_squash_per_cycle=4
system=system
port=system.ruby.l1_cntrl1.sequencer.slave[3]

[system.cpu1.tracer]
type=ExeTracer
eventq_index=0

[system.cpu2]
type=TimingSimpleCPU
children=apic_clk_domain dtb interrupts isa itb tracer
branchPred=Null
checker=Null
clk_domain=system.cpu_clk_domain
cpu_id=2
do_checkpoint_insts=true
do_quiesce=true
do_statistics_insts=true
dtb=system.cpu2.dtb
eventq_index=0
function_trace=false
function_trace_start=0
interrupts=system.cpu2.interrupts
isa=system.cpu2.isa
itb=system.cpu2.itb
max_insts_all_threads=0
max_insts_any_thread=0
max_loads_all_threads=0
max_loads_any_thread=0
numThreads=1
profile=0
progress_interval=0
simpoint_start_insts=
socket_id=0
switched_out=false
system=system
tracer=system.cpu2.tracer
workload=system.cpu0.workload
dcache_port=system.ruby.l1_cntrl2.sequencer.slave[1]
icache_port=system.ruby.l1_cntrl2.sequencer.slave[0]

[system.cpu2.apic_clk_domain]
type=DerivedClockDomain
clk_divider=16
clk_domain=system.cpu_clk_domain
eventq_index=0

[system.cpu2.dtb]
type=X86TLB
children=walker
eventq_index=0
size=64
walker=system.cpu2.dtb.walker

[system.cpu2.dtb.walker]
type=X86PagetableWalker
clk_domain=system.cpu_clk_domain
eventq_index=0
num_squash_per_cycle=4
system=system
port=system.ruby.l1_cntrl2.sequencer.slave[4]

[system.cpu2.interrupts]
type=X86LocalApic
clk_domain=system.cpu2.apic_clk_domain
eventq_index=0
int_latency=1000
pio_addr=2305843009213693952
pio_latency=100000
system=system
int_master=system.ruby.l1_cntrl2.sequencer.slave[2]
int_slave=system.ruby.l1_cntrl2.sequencer.master[1]
pio=system.ruby.l1_cntrl2.sequencer.master[0]

[system.cpu2.isa]
type=X86ISA
eventq_index=0

[system.cpu2.itb]
type=X86TLB
children=walker
eventq_index=0
size=64
walker=system.cpu2.itb.walker

[system.cpu2.itb.walker]
type=X86PagetableWalker
clk_domain=system.cpu_clk_domain
eventq_index=0
num_squash_per_cycle=4
system=system
port=system.ruby.l1_cntrl2.sequencer.slave[3]

[system.cpu2.tracer]
type=ExeTracer
eventq_index=0

[system.cpu3]
type=TimingSimpleCPU
children=apic_clk_domain dtb interrupts isa itb tracer
branchPred=Null
checker=Null
clk_domain=system.cpu_clk_domain
cpu_id=3
do_checkpoint_insts=true
do_quiesce=true
do_statistics_insts=true
dtb=system.cpu3.dtb
eventq_index=0
function_trace=false
function_trace_start=0
interrupts=system.cpu3.interrupts
isa=system.cpu3.isa
itb=system.cpu3.itb
max_insts_all_threads=0
max_insts_any_thread=0
max_loads_all_threads=0
max_loads_any_thread=0
numThreads=1
profile=0
progress_interval=0
simpoint_start_insts=
socket_id=0
switched_out=false
system=system
tracer=system.cpu3.tracer
workload=system.cpu0.workload
dcache_port=system.ruby.l1_cntrl3.sequencer.slave[1]
icache_port=system.ruby.l1_cntrl3.sequencer.slave[0]

[system.cpu3.apic_clk_domain]
type=DerivedClockDomain
clk_divider=16
clk_domain=system.cpu_clk_domain
eventq_index=0

[system.cpu3.dtb]
type=X86TLB
children=walker
eventq_index=0
size=64
walker=system.cpu3.dtb.walker

[system.cpu3.dtb.walker]
type=X86PagetableWalker
clk_domain=system.cpu_clk_domain
eventq_index=0
num_squash_per_cycle=4
system=system
port=system.ruby.l1_cntrl3.sequencer.slave[4]

[system.cpu3.interrupts]
type=X86LocalApic
clk_domain=system.cpu3.apic_clk_domain
eventq_index=0
int_latency=1000
pio_addr=2305843009213693952
pio_latency=100000
system=system
int_master=system.ruby.l1_cntrl3.sequencer.slave[2]
int_slave=system.ruby.l1_cntrl3.sequencer.master[1]
pio=system.ruby.l1_cntrl3.sequencer.master[0]

[system.cpu3.isa]
type=X86ISA
eventq_index=0

[system.cpu3.itb]
type=X86TLB
children=walker
eventq_index=0
size=64
walker=system.cpu3.itb.walker

[system.cpu3.itb.walker]
type=X86PagetableWalker
clk_domain=system.cpu_clk_domain
eventq_index=0
num_squash_per_cycle=4
system=system
port=system.ruby.l1_cntrl3.sequencer.slave[3]

[system.cpu3.tracer]
type=ExeTracer
eventq_index=0

[system.cpu_clk_domain]
type=SrcClockDomain
clock=500
domain_id=-1
eventq_index=0
init_perf_level=0
voltage_domain=system.cpu_voltage_domain

[system.cpu_voltage_domain]
type=VoltageDomain
eventq_index=0
voltage=1.000000

[system.dvfs_handler]
type=DVFSHandler
domains=
enable=false
eventq_index=0
sys_clk_domain=system.clk_domain
transition_latency=100000000

[system.mem_ctrls]
type=SimpleMemory
bandwidth=73.000000
clk_domain=system.clk_domain
conf_table_reported=true
eventq_index=0
in_addr_map=true
latency=9500
latency_var=0
null=false
range=0:4294967295
port=system.ruby.dir_cntrl0.memory

[system.ruby]
type=RubySystem
children=clk_domain dir_cntrl0 l1_cntrl0 l1_cntrl1 l1_cntrl2 l1_cntrl3 memctrl_clk_domain network
access_backing_store=false
all_instructions=false
block_size_bytes=64
clk_domain=system.ruby.clk_domain
eventq_index=0
hot_lines=false
memory_size_bits=48
num_of_sequencers=4
phys_mem=Null
random_seed=1234
randomization=false

[system.ruby.clk_domain]
type=SrcClockDomain
clock=500
domain_id=-1
eventq_index=0
init_perf_level=0
voltage_domain=system.voltage_domain

[system.ruby.dir_cntrl0]
type=Directory_Controller
children=directory
buffer_size=0
clk_domain=system.ruby.clk_domain
cluster_id=0
directory=system.ruby.dir_cntrl0.directory
directory_latency=6
eventq_index=0
number_of_TBEs=256
recycle_latency=10
ruby_system=system.ruby
system=system
to_mem_ctrl_latency=5
transitions_per_cycle=4
version=0
memory=system.mem_ctrls.port
requestToDir=system.ruby.network.master[16]
requestToDir_WB=system.ruby.network.master[18]
responseFromDir=system.ruby.network.slave[16]
responseToDir=system.ruby.network.master[17]

[system.ruby.dir_cntrl0.directory]
type=RubyDirectoryMemory
eventq_index=0
numa_high_bit=5
size=4294967296
version=0

[system.ruby.l1_cntrl0]
type=L1Cache_Controller
children=Dcache Icache sequencer
Dcache=system.ruby.l1_cntrl0.Dcache
Icache=system.ruby.l1_cntrl0.Icache
buffer_size=0
clk_domain=system.cpu_clk_domain
cluster_id=0
eventq_index=0
is_blocked=0
l1_request_latency=5
l1_response_latency=2
max_arbit_latency=0
max_interC_latency=0
max_intraC_latency=0
max_wcet_latency=0
number_of_TBEs=256
recycle_latency=10
ruby_system=system.ruby
send_evictions=true
sequencer=system.ruby.l1_cntrl0.sequencer
system=system
transitions_per_cycle=4
version=0
atomicRequestFromCache=system.ruby.network.slave[2]
atomicRequestToCache=system.ruby.network.master[2]
requestFromCache=system.ruby.network.slave[0]
requestFromCacheWB=system.ruby.network.slave[3]
requestToCache=system.ruby.network.master[1]
requestToCacheWB=system.ruby.network.master[3]
responseFromCache=system.ruby.network.slave[1]
responseToCache=system.ruby.network.master[0]

[system.ruby.l1_cntrl0.Dcache]
type=RubyCache
assoc=1
dataAccessLatency=1
dataArrayBanks=1
eventq_index=0
is_icache=false
latency=3
replacement_policy=LRU
resourceStalls=false
size=16384
start_index_bit=6
tagAccessLatency=1
tagArrayBanks=1

[system.ruby.l1_cntrl0.Icache]
type=RubyCache
assoc=1
dataAccessLatency=1
dataArrayBanks=1
eventq_index=0
is_icache=true
latency=3
replacement_policy=LRU
resourceStalls=false
size=16384
start_index_bit=6
tagAccessLatency=1
tagArrayBanks=1

[system.ruby.l1_cntrl0.sequencer]
type=RubySequencer
clk_domain=system.cpu_clk_domain
dcache=system.ruby.l1_cntrl0.Dcache
deadlock_threshold=500000
eventq_index=0
icache=system.ruby.l1_cntrl0.Icache
max_outstanding_requests=16
ruby_system=system.ruby
support_data_reqs=true
support_inst_reqs=true
svc=system.ruby.l1_cntrl0.Dcache
system=system
using_network_tester=false
using_ruby_tester=false
version=0
master=system.cpu0.interrupts.pio system.cpu0.interrupts.int_slave
slave=system.cpu0.icache_port system.cpu0.dcache_port system.cpu0.interrupts.int_master system.cpu0.itb.walker.port system.cpu0.dtb.walker.port

[system.ruby.l1_cntrl1]
type=L1Cache_Controller
children=Dcache Icache sequencer
Dcache=system.ruby.l1_cntrl1.Dcache
Icache=system.ruby.l1_cntrl1.Icache
buffer_size=0
clk_domain=system.cpu_clk_domain
cluster_id=0
eventq_index=0
is_blocked=0
l1_request_latency=5
l1_response_latency=2
max_arbit_latency=0
max_interC_latency=0
max_intraC_latency=0
max_wcet_latency=0
number_of_TBEs=256
recycle_latency=10
ruby_system=system.ruby
send_evictions=true
sequencer=system.ruby.l1_cntrl1.sequencer
system=system
transitions_per_cycle=4
version=1
atomicRequestFromCache=system.ruby.network.slave[6]
atomicRequestToCache=system.ruby.network.master[6]
requestFromCache=system.ruby.network.slave[4]
requestFromCacheWB=system.ruby.network.slave[7]
requestToCache=system.ruby.network.master[5]
requestToCacheWB=system.ruby.network.master[7]
responseFromCache=system.ruby.network.slave[5]
responseToCache=system.ruby.network.master[4]

[system.ruby.l1_cntrl1.Dcache]
type=RubyCache
assoc=1
dataAccessLatency=1
dataArrayBanks=1
eventq_index=0
is_icache=false
latency=3
replacement_policy=LRU
resourceStalls=false
size=16384
start_index_bit=6
tagAccessLatency=1
tagArrayBanks=1

[system.ruby.l1_cntrl1.Icache]
type=RubyCache
assoc=1
dataAccessLatency=1
dataArrayBanks=1
eventq_index=0
is_icache=true
latency=3
replacement_policy=LRU
resourceStalls=false
size=16384
start_index_bit=6
tagAccessLatency=1
tagArrayBanks=1

[system.ruby.l1_cntrl1.sequencer]
type=RubySequencer
clk_domain=system.cpu_clk_domain
dcache=system.ruby.l1_cntrl1.Dcache
deadlock_threshold=500000
eventq_index=0
icache=system.ruby.l1_cntrl1.Icache
max_outstanding_requests=16
ruby_system=system.ruby
support_data_reqs=true
support_inst_reqs=true
svc=system.ruby.l1_cntrl1.Dcache
system=system
using_network_tester=false
using_ruby_tester=false
version=1
master=system.cpu1.interrupts.pio system.cpu1.interrupts.int_slave
slave=system.cpu1.icache_port system.cpu1.dcache_port system.cpu1.interrupts.int_master system.cpu1.itb.walker.port system.cpu1.dtb.walker.port

[system.ruby.l1_cntrl2]
type=L1Cache_Controller
children=Dcache Icache sequencer
Dcache=system.ruby.l1_cntrl2.Dcache
Icache=system.ruby.l1_cntrl2.Icache
buffer_size=0
clk_domain=system.cpu_clk_domain
cluster_id=0
eventq_index=0
is_blocked=0
l1_request_latency=5
l1_response_latency=2
max_arbit_latency=0
max_interC_latency=0
max_intraC_latency=0
max_wcet_latency=0
number_of_TBEs=256
recycle_latency=10
ruby_system=system.ruby
send_evictions=true
sequencer=system.ruby.l1_cntrl2.sequencer
system=system
transitions_per_cycle=4
version=2
atomicRequestFromCache=system.ruby.network.slave[10]
atomicRequestToCache=system.ruby.network.master[10]
requestFromCache=system.ruby.network.slave[8]
requestFromCacheWB=system.ruby.network.slave[11]
requestToCache=system.ruby.network.master[9]
requestToCacheWB=system.ruby.network.master[11]
responseFromCache=system.ruby.network.slave[9]
responseToCache=system.ruby.network.master[8]

[system.ruby.l1_cntrl2.Dcache]
type=RubyCache
assoc=1
dataAccessLatency=1
dataArrayBanks=1
eventq_index=0
is_icache=false
latency=3
replacement_policy=LRU
resourceStalls=false
size=16384
start_index_bit=6
tagAccessLatency=1
tagArrayBanks=1

[system.ruby.l1_cntrl2.Icache]
type=RubyCache
assoc=1
dataAccessLatency=1
dataArrayBanks=1
eventq_index=0
is_icache=true
latency=3
replacement_policy=LRU
resourceStalls=false
size=16384
start_index_bit=6
tagAccessLatency=1
tagArrayBanks=1

[system.ruby.l1_cntrl2.sequencer]
type=RubySequencer
clk_domain=system.cpu_clk_domain
dcache=system.ruby.l1_cntrl2.Dcache
deadlock_threshold=500000
eventq_index=0
icache=system.ruby.l1_cntrl2.Icache
max_outstanding_requests=16
ruby_system=system.ruby
support_data_reqs=true
support_inst_reqs=true
svc=system.ruby.l1_cntrl2.Dcache
system=system
using_network_tester=false
using_ruby_tester=false
version=2
master=system.cpu2.interrupts.pio system.cpu2.interrupts.int_slave
slave=system.cpu2.icache_port system.cpu2.dcache_port system.cpu2.interrupts.int_master system.cpu2.itb.walker.port system.cpu2.dtb.walker.port

[system.ruby.l1_cntrl3]
type=L1Cache_Controller
children=Dcache Icache sequencer
Dcache=system.ruby.l1_cntrl3.Dcache
Icache=system.ruby.l1_cntrl3.Icache
buffer_size=0
clk_domain=system.cpu_clk_domain
cluster_id=0
eventq_index=0
is_blocked=0
l1_request_latency=5
l1_response_latency=2
max_arbit_latency=0
max_interC_latency=0
max_intraC_latency=0
max_wcet_latency=0
number_of_TBEs=256
recycle_latency=10
ruby_system=system.ruby
send_evictions=true
sequencer=system.ruby.l1_cntrl3.sequencer
system=system
transitions_per_cycle=4
version=3
atomicRequestFromCache=system.ruby.network.slave[14]
atomicRequestToCache=system.ruby.network.master[14]
requestFromCache=system.ruby.network.slave[12]
requestFromCacheWB=system.ruby.network.slave[15]
requestToCache=system.ruby.network.master[13]
requestToCacheWB=system.ruby.network.master[15]
responseFromCache=system.ruby.network.slave[13]
responseToCache=system.ruby.network.master[12]

[system.ruby.l1_cntrl3.Dcache]
type=RubyCache
assoc=1
dataAccessLatency=1
dataArrayBanks=1
eventq_index=0
is_icache=false
latency=3
replacement_policy=LRU
resourceStalls=false
size=16384
start_index_bit=6
tagAccessLatency=1
tagArrayBanks=1

[system.ruby.l1_cntrl3.Icache]
type=RubyCache
assoc=1
dataAccessLatency=1
dataArrayBanks=1
eventq_index=0
is_icache=true
latency=3
replacement_policy=LRU
resourceStalls=false
size=16384
start_index_bit=6
tagAccessLatency=1
tagArrayBanks=1

[system.ruby.l1_cntrl3.sequencer]
type=RubySequencer
clk_domain=system.cpu_clk_domain
dcache=system.ruby.l1_cntrl3.Dcache
deadlock_threshold=500000
eventq_index=0
icache=system.ruby.l1_cntrl3.Icache
max_outstanding_requests=16
ruby_system=system.ruby
support_data_reqs=true
support_inst_reqs=true
svc=system.ruby.l1_cntrl3.Dcache
system=system
using_network_tester=false
using_ruby_tester=false
version=3
master=system.cpu3.interrupts.pio system.cpu3.interrupts.int_slave
slave=system.cpu3.icache_port system.cpu3.dcache_port system.cpu3.interrupts.int_master system.cpu3.itb.walker.port system.cpu3.dtb.walker.port

[system.ruby.memctrl_clk_domain]
type=DerivedClockDomain
clk_divider=3
clk_domain=system.ruby.clk_domain
eventq_index=0

[system.ruby.network]
type=SimpleNetwork
children=ext_links0 ext_links1 ext_links2 ext_links3 ext_links4 int_links0 int_links1 int_links2 int_links3 int_links4 routers0 routers1 routers2 routers3 routers4 routers5
adaptive_routing=false
buffer_size=0
clk_domain=system.ruby.clk_domain
control_msg_size=8
endpoint_bandwidth=1000
eventq_index=0
ext_links=system.ruby.network.ext_links0 system.ruby.network.ext_links1 system.ruby.network.ext_links2 system.ruby.network.ext_links3 system.ruby.network.ext_links4
int_links=system.ruby.network.int_links0 system.ruby.network.int_links1 system.ruby.network.int_links2 system.ruby.network.int_links3 system.ruby.network.int_links4
netifs=
number_of_virtual_networks=10
routers=system.ruby.network.routers0 system.ruby.network.routers1 system.ruby.network.routers2 system.ruby.network.routers3 system.ruby.network.routers4 system.ruby.network.routers5
ruby_system=system.ruby
topology=Crossbar
master=system.ruby.l1_cntrl0.responseToCache system.ruby.l1_cntrl0.requestToCache system.ruby.l1_cntrl0.atomicRequestToCache system.ruby.l1_cntrl0.requestToCacheWB system.ruby.l1_cntrl1.responseToCache system.ruby.l1_cntrl1.requestToCache system.ruby.l1_cntrl1.atomicRequestToCache system.ruby.l1_cntrl1.requestToCacheWB system.ruby.l1_cntrl2.responseToCache system.ruby.l1_cntrl2.requestToCache system.ruby.l1_cntrl2.atomicRequestToCache system.ruby.l1_cntrl2.requestToCacheWB system.ruby.l1_cntrl3.responseToCache system.ruby.l1_cntrl3.requestToCache system.ruby.l1_cntrl3.atomicRequestToCache system.ruby.l1_cntrl3.requestToCacheWB system.ruby.dir_cntrl0.requestToDir system.ruby.dir_cntrl0.responseToDir system.ruby.dir_cntrl0.requestToDir_WB
slave=system.ruby.l1_cntrl0.requestFromCache system.ruby.l1_cntrl0.responseFromCache system.ruby.l1_cntrl0.atomicRequestFromCache system.ruby.l1_cntrl0.requestFromCacheWB system.ruby.l1_cntrl1.requestFromCache system.ruby.l1_cntrl1.responseFromCache system.ruby.l1_cntrl1.atomicRequestFromCache system.ruby.l1_cntrl1.requestFromCacheWB system.ruby.l1_cntrl2.requestFromCache system.ruby.l1_cntrl2.responseFromCache system.ruby.l1_cntrl2.atomicRequestFromCache system.ruby.l1_cntrl2.requestFromCacheWB system.ruby.l1_cntrl3.requestFromCache system.ruby.l1_cntrl3.responseFromCache system.ruby.l1_cntrl3.atomicRequestFromCache system.ruby.l1_cntrl3.requestFromCacheWB system.ruby.dir_cntrl0.responseFromDir

[system.ruby.network.ext_links0]
type=SimpleExtLink
bandwidth_factor=16
eventq_index=0
ext_node=system.ruby.l1_cntrl0
int_node=system.ruby.network.routers0
latency=1
link_id=0
weight=1

[system.ruby.network.ext_links1]
type=SimpleExtLink
bandwidth_factor=16
eventq_index=0
ext_node=system.ruby.l1_cntrl1
int_node=system.ruby.network.routers1
latency=1
link_id=1
weight=1

[system.ruby.network.ext_links2]
type=SimpleExtLink
bandwidth_factor=16
eventq_index=0
ext_node=system.ruby.l1_cntrl2
int_node=system.ruby.network.routers2
latency=1
link_id=2
weight=1

[system.ruby.network.ext_links3]
type=SimpleExtLink
bandwidth_factor=16
eventq_index=0
ext_node=system.ruby.l1_cntrl3
int_node=system.ruby.network.routers3
latency=1
link_id=3
weight=1

[system.ruby.network.ext_links4]
type=SimpleExtLink
bandwidth_factor=16
eventq_index=0
ext_node=system.ruby.dir_cntrl0
int_node=system.ruby.network.routers4
latency=1
link_id=4
weight=1

[system.ruby.network.int_links0]
type=SimpleIntLink
bandwidth_factor=16
eventq_index=0
latency=1
link_id=5
node_a=system.ruby.network.routers0
node_b=system.ruby.network.routers5
weight=1

[system.ruby.network.int_links1]
type=SimpleIntLink
bandwidth_factor=16
eventq_index=0
latency=1
link_id=6
node_a=system.ruby.network.routers1
node_b=system.ruby.network.routers5
weight=1

[system.ruby.network.int_links2]
type=SimpleIntLink
bandwidth_factor=16
eventq_index=0
latency=1
link_id=7
node_a=system.ruby.network.routers2
node_b=system.ruby.network.routers5
weight=1

[system.ruby.network.int_links3]
type=SimpleIntLink
bandwidth_factor=16
eventq_index=0
latency=1
link_id=8
node_a=system.ruby.network.routers3
node_b=system.ruby.network.routers5
weight=1

[system.ruby.network.int_links4]
type=SimpleIntLink
bandwidth_factor=16
eventq_index=0
latency=1
link_id=9
node_a=system.ruby.network.routers4
node_b=system.ruby.network.routers5
weight=1

[system.ruby.network.routers0]
type=Switch
clk_domain=system.ruby.clk_domain
eventq_index=0
router_id=0
virt_nets=10

[system.ruby.network.routers1]
type=Switch
clk_domain=system.ruby.clk_domain
eventq_index=0
router_id=1
virt_nets=10

[system.ruby.network.routers2]
type=Switch
clk_domain=system.ruby.clk_domain
eventq_index=0
router_id=2
virt_nets=10

[system.ruby.network.routers3]
type=Switch
clk_domain=system.ruby.clk_domain
eventq_index=0
router_id=3
virt_nets=10

[system.ruby.network.routers4]
type=Switch
clk_domain=system.ruby.clk_domain
eventq_index=0
router_id=4
virt_nets=10

[system.ruby.network.routers5]
type=Switch
clk_domain=system.ruby.clk_domain
eventq_index=0
router_id=5
virt_nets=10

[system.sys_port_proxy]
type=RubyPortProxy
clk_domain=system.clk_domain
eventq_index=0
ruby_system=system.ruby
support_data_reqs=true
support_inst_reqs=true
system=system
using_ruby_tester=false
version=0
slave=system.system_port

[system.voltage_domain]
type=VoltageDomain
eventq_index=0
voltage=1.000000

